$DATA1 SOURCE='FineSimPro' VERSION='L-2016.06-SP2-2'
.TITLE '** Generated for: hspiceD'
        avgval0        avgval1        avgval2        avgval3        avgval4        avgval5        avgval6        avgval7        avgval8        avgval9            bld          bldin          czabd         temper         alter#
     6.4396e-01     5.9414e-01     6.2918e-01     6.2315e-01     6.1705e-01     6.3192e-01     6.1594e-01     5.9482e-01     6.4085e-01     6.2116e-01     6.2863e-01          error          error     2.5000e+01     1.0000e+00
