$DATA1 SOURCE='FineSimPro' VERSION='L-2016.06-SP2-2'
.TITLE '** Generated for: hspiceD'
        avgval0        avgval1        avgval2        avgval3        avgval4        avgval5        avgval6        avgval7        avgval8        avgval9            bld          bldin          czabd         temper         alter#
     6.3538e-01     5.9586e-01     6.3228e-01     6.2678e-01     6.1482e-01     6.2092e-01     6.0373e-01     6.0843e-01     6.3053e-01     6.1698e-01     6.2863e-01          error          error     2.5000e+01     1.0000e+00
