$DATA1 SOURCE='FineSimPro' VERSION='L-2016.06-SP2-2'
.TITLE '** Generated for: hspiceD'
        avgval0        avgval1        avgval2        avgval3        avgval4        avgval5        avgval6        avgval7        avgval8        avgval9            bld          bldin          czabd         temper         alter#
     6.2966e-01     5.9243e-01     6.2412e-01     6.2533e-01     6.0721e-01     6.1076e-01     5.9971e-01     6.1859e-01     6.2188e-01     6.0967e-01     6.2863e-01          error          error     2.5000e+01     1.0000e+00
