$DATA1 SOURCE='FineSimPro' VERSION='L-2016.06-SP2-2'
.TITLE '** Generated for: hspiceD'
        avgval0        avgval1        avgval2        avgval3        avgval4        avgval5        avgval6        avgval7        avgval8        avgval9            bld          bldin          czabd         temper         alter#
     6.3861e-01     5.9023e-01     6.1938e-01     6.3006e-01     6.2420e-01     6.1831e-01     6.0325e-01     5.9900e-01     6.3150e-01     6.1147e-01     6.2863e-01          error          error     2.5000e+01     1.0000e+00
