$DATA1 SOURCE='FineSimPro' VERSION='L-2016.06-SP2-2'
.TITLE '** Generated for: hspiceD'
        avgval0        avgval1        avgval2        avgval3        avgval4        avgval5        avgval6        avgval7        avgval8        avgval9            bld          bldin          czabd         temper         alter#
     6.0870e-01     6.1217e-01     6.1549e-01     6.0873e-01     6.0535e-01     6.1768e-01     6.2649e-01     6.1438e-01     6.2976e-01     6.1329e-01     6.2863e-01          error          error     2.5000e+01     1.0000e+00
